pyBmodes coefficient validator
==============================
File: NRELOffshrBsline5MW_OC3Monopile_ElastoDyn.dat

Tower modes:
  TwFAM1Sh  file RMS= 0.0000  pyB RMS= 0.0000  ratio= 1.00    PASS
  TwFAM2Sh  file RMS= 0.0032  pyB RMS= 0.0032  ratio= 1.00    PASS
  TwSSM1Sh  file RMS= 0.0000  pyB RMS= 0.0000  ratio= 1.00    PASS
  TwSSM2Sh  file RMS= 0.0033  pyB RMS= 0.0033  ratio= 1.00    PASS

Blade modes:
  BldFl1Sh  file RMS= 0.0008  pyB RMS= 0.0008  ratio= 1.00    PASS
  BldFl2Sh  file RMS= 0.0035  pyB RMS= 0.0035  ratio= 1.00    PASS
  BldEdgSh  file RMS= 0.0002  pyB RMS= 0.0002  ratio= 1.00    PASS

Overall: PASS
