pyBmodes coefficient validator
==============================
File: IEA-3.4-130-RWT_ElastoDyn.dat

Tower modes:
  TwFAM1Sh  file RMS= 0.0002  pyB RMS= 0.0002  ratio= 1.00    PASS
  TwFAM2Sh  file RMS= 0.0042  pyB RMS= 0.0042  ratio= 1.00    PASS
  TwSSM1Sh  file RMS= 0.0002  pyB RMS= 0.0002  ratio= 1.00    PASS
  TwSSM2Sh  file RMS= 0.0041  pyB RMS= 0.0041  ratio= 1.00    PASS

Blade modes:
  BldFl1Sh  file RMS= 0.0014  pyB RMS= 0.0014  ratio= 1.00    PASS
  BldFl2Sh  file RMS= 0.0047  pyB RMS= 0.0047  ratio= 1.00    PASS
  BldEdgSh  file RMS= 0.0014  pyB RMS= 0.0014  ratio= 1.00    PASS

Overall: PASS
